D2_2_constr_stages_masonry.out
OOFEM input file for structural analysis 
staticstructural nsteps 30 deltaT 1. rtolv 1.e-6 MaxIter 5000 renumber 1 manrmsteps 5 nmodules 3 profileopt 1
#
#DSS lstype 4 smtype 8
#ITERATIVE lstype 1 smtype 4 lstol 1e-4 lsiter 1000 lsprecond 4
#
vtkxml tstep_step 1 domain_all cellvars 3 1 2 4  primvars 1 1 stype 1 regionsets 2 1 2
vtkxml tstep_step 1 domain_all cellvars 3 1 2 4  primvars 1 1 stype 1 regionsets 2 3 4
vtkxml tstep_step 1 domain_all cellvars 3 1 2 4  primvars 1 1 stype 1 regionsets 2 5 6
#
domain 2dPlaneStress
OutputManager tstep_all dofman_output {81} element_output {1}
#
# crosssect, mat, bc, ic, nltf:
ndofman 12535 nelem 24964 ncrosssect 6 nmat 6 nbc 5 nic 0 nltf 5 nset 6
node 1 coords 3 0.000000e+00 0.000000e+00 0.000000e+00 bc 2 1 1
node 2 coords 3 1.000000e-02 0.000000e+00 0.000000e+00 bc 2 0 1
node 3 coords 3 5.100000e-01 0.000000e+00 0.000000e+00 bc 2 0 1
node 4 coords 3 5.300000e-01 0.000000e+00 0.000000e+00 bc 2 0 1
node 5 coords 3 1.030000e+00 0.000000e+00 0.000000e+00 bc 2 0 1
node 6 coords 3 1.050000e+00 0.000000e+00 0.000000e+00 bc 2 0 1
node 7 coords 3 1.550000e+00 0.000000e+00 0.000000e+00 bc 2 0 1
node 8 coords 3 1.560000e+00 0.000000e+00 0.000000e+00 bc 2 0 1
node 9 coords 3 0.000000e+00 1.000000e-02 0.000000e+00
node 10 coords 3 1.000000e-02 1.000000e-02 0.000000e+00
node 11 coords 3 5.100000e-01 1.000000e-02 0.000000e+00
node 12 coords 3 5.300000e-01 1.000000e-02 0.000000e+00
node 13 coords 3 1.030000e+00 1.000000e-02 0.000000e+00
node 14 coords 3 1.050000e+00 1.000000e-02 0.000000e+00
node 15 coords 3 1.550000e+00 1.000000e-02 0.000000e+00
node 16 coords 3 1.560000e+00 1.000000e-02 0.000000e+00
node 17 coords 3 0.000000e+00 7.100000e-01 0.000000e+00
node 18 coords 3 1.000000e-02 7.100000e-01 0.000000e+00
node 19 coords 3 2.500000e-01 7.100000e-01 0.000000e+00
node 20 coords 3 2.700000e-01 7.100000e-01 0.000000e+00
node 21 coords 3 5.100000e-01 7.100000e-01 0.000000e+00
node 22 coords 3 5.300000e-01 7.100000e-01 0.000000e+00
node 23 coords 3 7.700000e-01 7.100000e-01 0.000000e+00
node 24 coords 3 7.900000e-01 7.100000e-01 0.000000e+00
node 25 coords 3 1.030000e+00 7.100000e-01 0.000000e+00
node 26 coords 3 1.050000e+00 7.100000e-01 0.000000e+00
node 27 coords 3 1.290000e+00 7.100000e-01 0.000000e+00
node 28 coords 3 1.310000e+00 7.100000e-01 0.000000e+00
# ... 52 like lines cut
node 81 coords 3 0.000000e+00 2.160000e+00 0.000000e+00 load 1 2
node 82 coords 3 1.000000e-02 2.160000e+00 0.000000e+00 doftype 2 0 1 mastermask 2 81 81
node 83 coords 3 5.100000e-01 2.160000e+00 0.000000e+00 doftype 2 0 1 mastermask 2 81 81
node 84 coords 3 5.300000e-01 2.160000e+00 0.000000e+00 doftype 2 0 1 mastermask 2 81 81
node 85 coords 3 1.030000e+00 2.160000e+00 0.000000e+00 doftype 2 0 1 mastermask 2 81 81
node 86 coords 3 1.050000e+00 2.160000e+00 0.000000e+00 doftype 2 0 1 mastermask 2 81 81
node 87 coords 3 1.550000e+00 2.160000e+00 0.000000e+00 doftype 2 0 1 mastermask 2 81 81
node 88 coords 3 1.560000e+00 2.160000e+00 0.000000e+00 doftype 2 0 1 mastermask 2 81 81
node 89 coords 3 2.000000e-02 1.000000e-02 0.000000e+00
node 90 coords 3 3.000000e-02 1.000000e-02 0.000000e+00
node 91 coords 3 4.000000e-02 1.000000e-02 0.000000e+00
node 92 coords 3 5.000000e-02 1.000000e-02 0.000000e+00
node 93 coords 3 6.000000e-02 1.000000e-02 0.000000e+00
node 94 coords 3 7.000000e-02 1.000000e-02 0.000000e+00
node 95 coords 3 8.000000e-02 1.000000e-02 0.000000e+00
node 96 coords 3 9.000000e-02 1.000000e-02 0.000000e+00
node 97 coords 3 1.000000e-01 1.000000e-02 0.000000e+00
node 98 coords 3 1.100000e-01 1.000000e-02 0.000000e+00
node 99 coords 3 1.200000e-01 1.000000e-02 0.000000e+00
node 100 coords 3 1.300000e-01 1.000000e-02 0.000000e+00
node 101 coords 3 1.400000e-01 1.000000e-02 0.000000e+00
node 102 coords 3 1.500000e-01 1.000000e-02 0.000000e+00
node 103 coords 3 1.600000e-01 1.000000e-02 0.000000e+00
node 104 coords 3 1.700000e-01 1.000000e-02 0.000000e+00
node 105 coords 3 1.800000e-01 1.000000e-02 0.000000e+00
node 106 coords 3 1.900000e-01 1.000000e-02 0.000000e+00
node 107 coords 3 2.000000e-01 1.000000e-02 0.000000e+00
node 108 coords 3 2.100000e-01 1.000000e-02 0.000000e+00
# ... 2216 like lines cut
node 2325 coords 3 2.000000e-02 0.000000e+00 0.000000e+00 bc 2 0 1
node 2326 coords 3 3.000000e-02 0.000000e+00 0.000000e+00 bc 2 0 1
node 2327 coords 3 4.000000e-02 0.000000e+00 0.000000e+00 bc 2 0 1
node 2328 coords 3 5.000000e-02 0.000000e+00 0.000000e+00 bc 2 0 1
node 2329 coords 3 6.000000e-02 0.000000e+00 0.000000e+00 bc 2 0 1
node 2330 coords 3 7.000000e-02 0.000000e+00 0.000000e+00 bc 2 0 1
node 2331 coords 3 8.000000e-02 0.000000e+00 0.000000e+00 bc 2 0 1
node 2332 coords 3 9.000000e-02 0.000000e+00 0.000000e+00 bc 2 0 1
node 2333 coords 3 1.000000e-01 0.000000e+00 0.000000e+00 bc 2 0 1
node 2334 coords 3 1.100000e-01 0.000000e+00 0.000000e+00 bc 2 0 1
node 2335 coords 3 1.200000e-01 0.000000e+00 0.000000e+00 bc 2 0 1
node 2336 coords 3 1.300000e-01 0.000000e+00 0.000000e+00 bc 2 0 1
node 2337 coords 3 1.400000e-01 0.000000e+00 0.000000e+00 bc 2 0 1
node 2338 coords 3 1.500000e-01 0.000000e+00 0.000000e+00 bc 2 0 1
node 2339 coords 3 1.600000e-01 0.000000e+00 0.000000e+00 bc 2 0 1
node 2340 coords 3 1.700000e-01 0.000000e+00 0.000000e+00 bc 2 0 1
node 2341 coords 3 1.800000e-01 0.000000e+00 0.000000e+00 bc 2 0 1
node 2342 coords 3 1.900000e-01 0.000000e+00 0.000000e+00 bc 2 0 1
node 2343 coords 3 2.000000e-01 0.000000e+00 0.000000e+00 bc 2 0 1
node 2344 coords 3 2.100000e-01 0.000000e+00 0.000000e+00 bc 2 0 1
# ... 30 like lines cut
node 2375 coords 3 5.200000e-01 1.000000e-02 0.000000e+00
node 2376 coords 3 5.400000e-01 0.000000e+00 0.000000e+00 bc 2 0 1
node 2377 coords 3 5.500000e-01 0.000000e+00 0.000000e+00 bc 2 0 1
node 2378 coords 3 5.600000e-01 0.000000e+00 0.000000e+00 bc 2 0 1
node 2379 coords 3 5.700000e-01 0.000000e+00 0.000000e+00 bc 2 0 1
node 2380 coords 3 5.800000e-01 0.000000e+00 0.000000e+00 bc 2 0 1
node 2381 coords 3 5.900000e-01 0.000000e+00 0.000000e+00 bc 2 0 1
node 2382 coords 3 6.000000e-01 0.000000e+00 0.000000e+00 bc 2 0 1
node 2383 coords 3 6.100000e-01 0.000000e+00 0.000000e+00 bc 2 0 1
node 2384 coords 3 6.200000e-01 0.000000e+00 0.000000e+00 bc 2 0 1
node 2385 coords 3 6.300000e-01 0.000000e+00 0.000000e+00 bc 2 0 1
node 2386 coords 3 6.400000e-01 0.000000e+00 0.000000e+00 bc 2 0 1
node 2387 coords 3 6.500000e-01 0.000000e+00 0.000000e+00 bc 2 0 1
node 2388 coords 3 6.600000e-01 0.000000e+00 0.000000e+00 bc 2 0 1
node 2389 coords 3 6.700000e-01 0.000000e+00 0.000000e+00 bc 2 0 1
node 2390 coords 3 6.800000e-01 0.000000e+00 0.000000e+00 bc 2 0 1
node 2391 coords 3 6.900000e-01 0.000000e+00 0.000000e+00 bc 2 0 1
node 2392 coords 3 7.000000e-01 0.000000e+00 0.000000e+00 bc 2 0 1
node 2393 coords 3 7.100000e-01 0.000000e+00 0.000000e+00 bc 2 0 1
node 2394 coords 3 7.200000e-01 0.000000e+00 0.000000e+00 bc 2 0 1
node 2395 coords 3 7.300000e-01 0.000000e+00 0.000000e+00 bc 2 0 1
# ... 30 like lines cut
node 2426 coords 3 1.040000e+00 1.000000e-02 0.000000e+00
node 2427 coords 3 1.060000e+00 0.000000e+00 0.000000e+00 bc 2 0 1
node 2428 coords 3 1.070000e+00 0.000000e+00 0.000000e+00 bc 2 0 1
node 2429 coords 3 1.080000e+00 0.000000e+00 0.000000e+00 bc 2 0 1
node 2430 coords 3 1.090000e+00 0.000000e+00 0.000000e+00 bc 2 0 1
node 2431 coords 3 1.100000e+00 0.000000e+00 0.000000e+00 bc 2 0 1
node 2432 coords 3 1.110000e+00 0.000000e+00 0.000000e+00 bc 2 0 1
node 2433 coords 3 1.120000e+00 0.000000e+00 0.000000e+00 bc 2 0 1
node 2434 coords 3 1.130000e+00 0.000000e+00 0.000000e+00 bc 2 0 1
node 2435 coords 3 1.140000e+00 0.000000e+00 0.000000e+00 bc 2 0 1
node 2436 coords 3 1.150000e+00 0.000000e+00 0.000000e+00 bc 2 0 1
node 2437 coords 3 1.160000e+00 0.000000e+00 0.000000e+00 bc 2 0 1
node 2438 coords 3 1.170000e+00 0.000000e+00 0.000000e+00 bc 2 0 1
node 2439 coords 3 1.180000e+00 0.000000e+00 0.000000e+00 bc 2 0 1
node 2440 coords 3 1.190000e+00 0.000000e+00 0.000000e+00 bc 2 0 1
node 2441 coords 3 1.200000e+00 0.000000e+00 0.000000e+00 bc 2 0 1
node 2442 coords 3 1.210000e+00 0.000000e+00 0.000000e+00 bc 2 0 1
node 2443 coords 3 1.220000e+00 0.000000e+00 0.000000e+00 bc 2 0 1
node 2444 coords 3 1.230000e+00 0.000000e+00 0.000000e+00 bc 2 0 1
node 2445 coords 3 1.240000e+00 0.000000e+00 0.000000e+00 bc 2 0 1
node 2446 coords 3 1.250000e+00 0.000000e+00 0.000000e+00 bc 2 0 1
# ... 29 like lines cut
node 2476 coords 3 0.000000e+00 7.000000e-01 0.000000e+00
node 2477 coords 3 0.000000e+00 6.900000e-01 0.000000e+00
node 2478 coords 3 0.000000e+00 6.800000e-01 0.000000e+00
node 2479 coords 3 0.000000e+00 6.700000e-01 0.000000e+00
node 2480 coords 3 0.000000e+00 6.600000e-01 0.000000e+00
node 2481 coords 3 0.000000e+00 6.500000e-01 0.000000e+00
node 2482 coords 3 0.000000e+00 6.400000e-01 0.000000e+00
node 2483 coords 3 0.000000e+00 6.300000e-01 0.000000e+00
node 2484 coords 3 0.000000e+00 6.200000e-01 0.000000e+00
node 2485 coords 3 0.000000e+00 6.100000e-01 0.000000e+00
node 2486 coords 3 0.000000e+00 6.000000e-01 0.000000e+00
node 2487 coords 3 0.000000e+00 5.900000e-01 0.000000e+00
node 2488 coords 3 0.000000e+00 5.800000e-01 0.000000e+00
node 2489 coords 3 0.000000e+00 5.700000e-01 0.000000e+00
node 2490 coords 3 0.000000e+00 5.600000e-01 0.000000e+00
node 2491 coords 3 0.000000e+00 5.500000e-01 0.000000e+00
node 2492 coords 3 0.000000e+00 5.400000e-01 0.000000e+00
node 2493 coords 3 0.000000e+00 5.300000e-01 0.000000e+00
node 2494 coords 3 0.000000e+00 5.200000e-01 0.000000e+00
node 2495 coords 3 0.000000e+00 5.100000e-01 0.000000e+00
# ... 296 like lines cut
node 2792 coords 3 5.000000e-01 2.160000e+00 0.000000e+00 doftype 2 0 1 mastermask 2 81 81
node 2793 coords 3 4.900000e-01 2.160000e+00 0.000000e+00 doftype 2 0 1 mastermask 2 81 81
node 2794 coords 3 4.800000e-01 2.160000e+00 0.000000e+00 doftype 2 0 1 mastermask 2 81 81
node 2795 coords 3 4.700000e-01 2.160000e+00 0.000000e+00 doftype 2 0 1 mastermask 2 81 81
node 2796 coords 3 4.600000e-01 2.160000e+00 0.000000e+00 doftype 2 0 1 mastermask 2 81 81
node 2797 coords 3 4.500000e-01 2.160000e+00 0.000000e+00 doftype 2 0 1 mastermask 2 81 81
node 2798 coords 3 4.400000e-01 2.160000e+00 0.000000e+00 doftype 2 0 1 mastermask 2 81 81
node 2799 coords 3 4.300000e-01 2.160000e+00 0.000000e+00 doftype 2 0 1 mastermask 2 81 81
node 2800 coords 3 4.200000e-01 2.160000e+00 0.000000e+00 doftype 2 0 1 mastermask 2 81 81
node 2801 coords 3 4.100000e-01 2.160000e+00 0.000000e+00 doftype 2 0 1 mastermask 2 81 81
node 2802 coords 3 4.000000e-01 2.160000e+00 0.000000e+00 doftype 2 0 1 mastermask 2 81 81
node 2803 coords 3 3.900000e-01 2.160000e+00 0.000000e+00 doftype 2 0 1 mastermask 2 81 81
node 2804 coords 3 3.800000e-01 2.160000e+00 0.000000e+00 doftype 2 0 1 mastermask 2 81 81
node 2805 coords 3 3.700000e-01 2.160000e+00 0.000000e+00 doftype 2 0 1 mastermask 2 81 81
node 2806 coords 3 3.600000e-01 2.160000e+00 0.000000e+00 doftype 2 0 1 mastermask 2 81 81
node 2807 coords 3 3.500000e-01 2.160000e+00 0.000000e+00 doftype 2 0 1 mastermask 2 81 81
node 2808 coords 3 3.400000e-01 2.160000e+00 0.000000e+00 doftype 2 0 1 mastermask 2 81 81
node 2809 coords 3 3.300000e-01 2.160000e+00 0.000000e+00 doftype 2 0 1 mastermask 2 81 81
node 2810 coords 3 3.200000e-01 2.160000e+00 0.000000e+00 doftype 2 0 1 mastermask 2 81 81
node 2811 coords 3 3.100000e-01 2.160000e+00 0.000000e+00 doftype 2 0 1 mastermask 2 81 81
# ... 129 like lines cut
node 2941 coords 3 5.144291e-01 7.367900e-01 0.000000e+00
node 2942 coords 3 5.241219e-01 7.397075e-01 0.000000e+00
node 2943 coords 3 5.256696e-01 1.422853e+00 0.000000e+00
node 2944 coords 3 5.159449e-01 1.419719e+00 0.000000e+00
node 2945 coords 3 2.766279e-01 7.363753e-01 0.000000e+00
node 2946 coords 3 2.847857e-01 7.376580e-01 0.000000e+00
node 2947 coords 3 2.950164e-01 7.383863e-01 0.000000e+00
node 2948 coords 3 3.043483e-01 7.374282e-01 0.000000e+00
node 2949 coords 3 3.144291e-01 7.405006e-01 0.000000e+00
node 2950 coords 3 3.248440e-01 7.376679e-01 0.000000e+00
node 2951 coords 3 3.348596e-01 7.402777e-01 0.000000e+00
node 2952 coords 3 3.448810e-01 7.375985e-01 0.000000e+00
node 2953 coords 3 3.548171e-01 7.405529e-01 0.000000e+00
node 2954 coords 3 3.648899e-01 7.378836e-01 0.000000e+00
node 2955 coords 3 3.748567e-01 7.405688e-01 0.000000e+00
node 2956 coords 3 3.849066e-01 7.376793e-01 0.000000e+00
node 2957 coords 3 3.948743e-01 7.406075e-01 0.000000e+00
node 2958 coords 3 4.049350e-01 7.379423e-01 0.000000e+00
node 2959 coords 3 4.149990e-01 7.407012e-01 0.000000e+00
node 2960 coords 3 4.250948e-01 7.377714e-01 0.000000e+00
# ... 4426 like lines cut
node 7387 coords 3 2.641511e-01 1.421366e+00 0.000000e+00 bc 2 3 3
node 7388 coords 3 2.565094e-01 1.423260e+00 0.000000e+00 bc 2 3 3
node 7389 coords 3 2.565100e-01 7.367396e-01 0.000000e+00 bc 2 3 3
node 7390 coords 3 2.641517e-01 7.386339e-01 0.000000e+00 bc 2 3 3
node 7391 coords 3 2.583972e-01 1.414935e+00 0.000000e+00 bc 2 3 3
node 7392 coords 3 2.597249e-01 1.404989e+00 0.000000e+00 bc 2 3 3
node 7393 coords 3 2.599527e-01 1.394998e+00 0.000000e+00 bc 2 3 3
node 7394 coords 3 2.599918e-01 1.385000e+00 0.000000e+00 bc 2 3 3
node 7395 coords 3 2.599985e-01 1.375000e+00 0.000000e+00 bc 2 3 3
node 7396 coords 3 2.599997e-01 1.365000e+00 0.000000e+00 bc 2 3 3
node 7397 coords 3 2.599999e-01 1.355000e+00 0.000000e+00 bc 2 3 3
node 7398 coords 3 2.599999e-01 1.345000e+00 0.000000e+00 bc 2 3 3
node 7399 coords 3 2.599999e-01 1.335000e+00 0.000000e+00 bc 2 3 3
node 7400 coords 3 2.599999e-01 1.325000e+00 0.000000e+00 bc 2 3 3
node 7401 coords 3 2.599999e-01 1.315000e+00 0.000000e+00 bc 2 3 3
node 7402 coords 3 2.599999e-01 1.305000e+00 0.000000e+00 bc 2 3 3
node 7403 coords 3 2.599999e-01 1.295000e+00 0.000000e+00 bc 2 3 3
node 7404 coords 3 2.599999e-01 1.285000e+00 0.000000e+00 bc 2 3 3
node 7405 coords 3 2.599999e-01 1.275000e+00 0.000000e+00 bc 2 3 3
node 7406 coords 3 2.599999e-01 1.265000e+00 0.000000e+00 bc 2 3 3
# ... 820 like lines cut
node 8227 coords 3 1.034326e+00 7.371506e-01 0.000000e+00
node 8228 coords 3 1.044049e+00 7.402837e-01 0.000000e+00
node 8229 coords 3 1.045572e+00 1.423209e+00 0.000000e+00
node 8230 coords 3 1.035877e+00 1.420286e+00 0.000000e+00
node 8231 coords 3 7.965794e-01 7.364444e-01 0.000000e+00
node 8232 coords 3 8.046807e-01 7.378388e-01 0.000000e+00
node 8233 coords 3 8.149016e-01 7.387782e-01 0.000000e+00
node 8234 coords 3 8.258168e-01 7.387654e-01 0.000000e+00
node 8235 coords 3 8.363624e-01 7.377894e-01 0.000000e+00
node 8236 coords 3 8.449959e-01 7.362596e-01 0.000000e+00
node 8237 coords 3 8.543802e-01 7.391783e-01 0.000000e+00
node 8238 coords 3 8.644386e-01 7.371689e-01 0.000000e+00
node 8239 coords 3 8.742377e-01 7.399668e-01 0.000000e+00
node 8240 coords 3 8.845550e-01 7.374720e-01 0.000000e+00
node 8241 coords 3 8.945162e-01 7.404605e-01 0.000000e+00
node 8242 coords 3 9.047761e-01 7.378630e-01 0.000000e+00
node 8243 coords 3 9.148391e-01 7.405885e-01 0.000000e+00
node 8244 coords 3 9.250109e-01 7.376835e-01 0.000000e+00
node 8245 coords 3 9.351598e-01 7.404907e-01 0.000000e+00
node 8246 coords 3 9.451817e-01 7.377229e-01 0.000000e+00
# ... 1240 like lines cut
node 9487 coords 3 2.600000e-01 1.435714e+00 0.000000e+00 bc 2 3 3
node 9488 coords 3 2.600000e-01 1.444286e+00 0.000000e+00 bc 2 3 3
node 9489 coords 3 5.013658e-01 1.435849e+00 0.000000e+00 bc 2 3 3
node 9490 coords 3 5.032598e-01 1.443491e+00 0.000000e+00 bc 2 3 3
node 9491 coords 3 2.767396e-01 1.443490e+00 0.000000e+00 bc 2 3 3
node 9492 coords 3 2.786339e-01 1.435848e+00 0.000000e+00 bc 2 3 3
node 9493 coords 3 4.949352e-01 1.441603e+00 0.000000e+00 bc 2 3 3
node 9494 coords 3 4.849889e-01 1.440275e+00 0.000000e+00 bc 2 3 3
node 9495 coords 3 4.749981e-01 1.440047e+00 0.000000e+00 bc 2 3 3
node 9496 coords 3 4.649997e-01 1.440008e+00 0.000000e+00 bc 2 3 3
node 9497 coords 3 4.549999e-01 1.440001e+00 0.000000e+00 bc 2 3 3
node 9498 coords 3 4.450000e-01 1.440000e+00 0.000000e+00 bc 2 3 3
node 9499 coords 3 4.350000e-01 1.440000e+00 0.000000e+00 bc 2 3 3
node 9500 coords 3 4.250000e-01 1.440000e+00 0.000000e+00 bc 2 3 3
node 9501 coords 3 4.150000e-01 1.440000e+00 0.000000e+00 bc 2 3 3
node 9502 coords 3 4.050000e-01 1.440000e+00 0.000000e+00 bc 2 3 3
node 9503 coords 3 3.950000e-01 1.440000e+00 0.000000e+00 bc 2 3 3
node 9504 coords 3 3.850000e-01 1.440000e+00 0.000000e+00 bc 2 3 3
node 9505 coords 3 3.750000e-01 1.440000e+00 0.000000e+00 bc 2 3 3
node 9506 coords 3 3.650000e-01 1.440000e+00 0.000000e+00 bc 2 3 3
# ... 39 like lines cut
node 9546 coords 3 1.021366e+00 1.435849e+00 0.000000e+00
node 9547 coords 3 1.023260e+00 1.443491e+00 0.000000e+00
node 9548 coords 3 7.967396e-01 1.443490e+00 0.000000e+00
node 9549 coords 3 7.986339e-01 1.435848e+00 0.000000e+00
node 9550 coords 3 1.014935e+00 1.441603e+00 0.000000e+00
node 9551 coords 3 1.004989e+00 1.440275e+00 0.000000e+00
node 9552 coords 3 9.949981e-01 1.440047e+00 0.000000e+00
node 9553 coords 3 9.849997e-01 1.440008e+00 0.000000e+00
node 9554 coords 3 9.749999e-01 1.440001e+00 0.000000e+00
node 9555 coords 3 9.650000e-01 1.440000e+00 0.000000e+00
node 9556 coords 3 9.550000e-01 1.440000e+00 0.000000e+00
node 9557 coords 3 9.450000e-01 1.440000e+00 0.000000e+00
node 9558 coords 3 9.350000e-01 1.440000e+00 0.000000e+00
node 9559 coords 3 9.250000e-01 1.440000e+00 0.000000e+00
node 9560 coords 3 9.150000e-01 1.440000e+00 0.000000e+00
node 9561 coords 3 9.050000e-01 1.440000e+00 0.000000e+00
node 9562 coords 3 8.950000e-01 1.440000e+00 0.000000e+00
node 9563 coords 3 8.850000e-01 1.440000e+00 0.000000e+00
node 9564 coords 3 8.750000e-01 1.440000e+00 0.000000e+00
node 9565 coords 3 8.650000e-01 1.440000e+00 0.000000e+00
# ... 2970 like lines cut
TrPlaneStress2d 1 nodes 3 35 998 2941 crossSect 5 mat 5
TrPlaneStress2d 2 nodes 3 998 36 2942 crossSect 5 mat 5
TrPlaneStress2d 3 nodes 3 50 1114 2943 crossSect 5 mat 5 boundaryLoads 2 4 1
TrPlaneStress2d 4 nodes 3 1114 49 2944 crossSect 5 mat 5 boundaryLoads 2 4 1
TrPlaneStress2d 5 nodes 3 34 975 2945 crossSect 5 mat 5
TrPlaneStress2d 6 nodes 3 975 976 2946 crossSect 5 mat 5
TrPlaneStress2d 7 nodes 3 976 977 2947 crossSect 5 mat 5
TrPlaneStress2d 8 nodes 3 977 978 2948 crossSect 5 mat 5
TrPlaneStress2d 9 nodes 3 978 979 2949 crossSect 5 mat 5
TrPlaneStress2d 10 nodes 3 979 980 2950 crossSect 5 mat 5
TrPlaneStress2d 11 nodes 3 980 981 2951 crossSect 5 mat 5
TrPlaneStress2d 12 nodes 3 981 982 2952 crossSect 5 mat 5
TrPlaneStress2d 13 nodes 3 982 983 2953 crossSect 5 mat 5
TrPlaneStress2d 14 nodes 3 983 984 2954 crossSect 5 mat 5
TrPlaneStress2d 15 nodes 3 984 985 2955 crossSect 5 mat 5
TrPlaneStress2d 16 nodes 3 985 986 2956 crossSect 5 mat 5
TrPlaneStress2d 17 nodes 3 986 987 2957 crossSect 5 mat 5
TrPlaneStress2d 18 nodes 3 987 988 2958 crossSect 5 mat 5
TrPlaneStress2d 19 nodes 3 988 989 2959 crossSect 5 mat 5
TrPlaneStress2d 20 nodes 3 989 990 2960 crossSect 5 mat 5
TrPlaneStress2d 21 nodes 3 990 991 2961 crossSect 5 mat 5
TrPlaneStress2d 22 nodes 3 991 992 2962 crossSect 5 mat 5
TrPlaneStress2d 23 nodes 3 992 993 2963 crossSect 5 mat 5
TrPlaneStress2d 24 nodes 3 993 994 2964 crossSect 5 mat 5
# ... 98 like lines cut
TrPlaneStress2d 123 nodes 3 51 1091 3061 crossSect 5 mat 5 boundaryLoads 2 4 1
TrPlaneStress2d 124 nodes 3 1091 1092 3062 crossSect 5 mat 5 boundaryLoads 2 4 1
TrPlaneStress2d 125 nodes 3 1092 1093 3063 crossSect 5 mat 5 boundaryLoads 2 4 1
TrPlaneStress2d 126 nodes 3 1093 1094 3064 crossSect 5 mat 5 boundaryLoads 2 4 1
TrPlaneStress2d 127 nodes 3 1094 1095 3065 crossSect 5 mat 5 boundaryLoads 2 4 1
TrPlaneStress2d 128 nodes 3 1095 1096 3066 crossSect 5 mat 5 boundaryLoads 2 4 1
TrPlaneStress2d 129 nodes 3 1096 1097 3067 crossSect 5 mat 5 boundaryLoads 2 4 1
TrPlaneStress2d 130 nodes 3 1097 1098 3068 crossSect 5 mat 5 boundaryLoads 2 4 1
TrPlaneStress2d 131 nodes 3 1098 1099 3069 crossSect 5 mat 5 boundaryLoads 2 4 1
TrPlaneStress2d 132 nodes 3 1099 1100 3070 crossSect 5 mat 5 boundaryLoads 2 4 1
TrPlaneStress2d 133 nodes 3 1100 1101 3071 crossSect 5 mat 5 boundaryLoads 2 4 1
TrPlaneStress2d 134 nodes 3 1101 1102 3072 crossSect 5 mat 5 boundaryLoads 2 4 1
TrPlaneStress2d 135 nodes 3 1102 1103 3073 crossSect 5 mat 5 boundaryLoads 2 4 1
TrPlaneStress2d 136 nodes 3 1103 1104 3074 crossSect 5 mat 5 boundaryLoads 2 4 1
TrPlaneStress2d 137 nodes 3 1104 1105 3075 crossSect 5 mat 5 boundaryLoads 2 4 1
TrPlaneStress2d 138 nodes 3 1105 1106 3076 crossSect 5 mat 5 boundaryLoads 2 4 1
TrPlaneStress2d 139 nodes 3 1106 1107 3077 crossSect 5 mat 5 boundaryLoads 2 4 1
TrPlaneStress2d 140 nodes 3 1107 1108 3078 crossSect 5 mat 5 boundaryLoads 2 4 1
TrPlaneStress2d 141 nodes 3 1108 1109 3079 crossSect 5 mat 5 boundaryLoads 2 4 1
TrPlaneStress2d 142 nodes 3 1109 1110 3080 crossSect 5 mat 5 boundaryLoads 2 4 1
# ... 28 like lines cut
TrPlaneStress2d 171 nodes 3 48 1138 3108 crossSect 5 mat 5
TrPlaneStress2d 172 nodes 3 1138 1139 3109 crossSect 5 mat 5
TrPlaneStress2d 173 nodes 3 1139 1140 3110 crossSect 5 mat 5
TrPlaneStress2d 174 nodes 3 1140 1141 3111 crossSect 5 mat 5
TrPlaneStress2d 175 nodes 3 1141 1142 3112 crossSect 5 mat 5
TrPlaneStress2d 176 nodes 3 1142 1143 3113 crossSect 5 mat 5
TrPlaneStress2d 177 nodes 3 1143 1144 3114 crossSect 5 mat 5
TrPlaneStress2d 178 nodes 3 1144 1145 3115 crossSect 5 mat 5
TrPlaneStress2d 179 nodes 3 1145 1146 3116 crossSect 5 mat 5
TrPlaneStress2d 180 nodes 3 1146 1147 3117 crossSect 5 mat 5
TrPlaneStress2d 181 nodes 3 1147 1148 3118 crossSect 5 mat 5
TrPlaneStress2d 182 nodes 3 1148 1149 3119 crossSect 5 mat 5
TrPlaneStress2d 183 nodes 3 1149 1150 3120 crossSect 5 mat 5
TrPlaneStress2d 184 nodes 3 1150 1151 3121 crossSect 5 mat 5
TrPlaneStress2d 185 nodes 3 1151 1152 3122 crossSect 5 mat 5
TrPlaneStress2d 186 nodes 3 1152 1153 3123 crossSect 5 mat 5
TrPlaneStress2d 187 nodes 3 1153 1154 3124 crossSect 5 mat 5
TrPlaneStress2d 188 nodes 3 1154 1155 3125 crossSect 5 mat 5
TrPlaneStress2d 189 nodes 3 1155 1156 3126 crossSect 5 mat 5
TrPlaneStress2d 190 nodes 3 1156 1157 3127 crossSect 5 mat 5
# ... 2016 like lines cut
TrPlaneStress2d 2207 nodes 3 65 1879 3782 crossSect 6 mat 6 boundaryLoads 2 5 1
TrPlaneStress2d 2208 nodes 3 1879 1878 3785 crossSect 6 mat 6 boundaryLoads 2 5 1
TrPlaneStress2d 2209 nodes 3 1878 1877 3786 crossSect 6 mat 6 boundaryLoads 2 5 1
TrPlaneStress2d 2210 nodes 3 1877 1876 3787 crossSect 6 mat 6 boundaryLoads 2 5 1
TrPlaneStress2d 2211 nodes 3 1876 1875 3788 crossSect 6 mat 6 boundaryLoads 2 5 1
TrPlaneStress2d 2212 nodes 3 1875 1874 3789 crossSect 6 mat 6 boundaryLoads 2 5 1
TrPlaneStress2d 2213 nodes 3 1874 1873 3790 crossSect 6 mat 6 boundaryLoads 2 5 1
TrPlaneStress2d 2214 nodes 3 1873 1872 3791 crossSect 6 mat 6 boundaryLoads 2 5 1
TrPlaneStress2d 2215 nodes 3 1872 1871 3792 crossSect 6 mat 6 boundaryLoads 2 5 1
TrPlaneStress2d 2216 nodes 3 1871 1870 3793 crossSect 6 mat 6 boundaryLoads 2 5 1
TrPlaneStress2d 2217 nodes 3 1870 1869 3794 crossSect 6 mat 6 boundaryLoads 2 5 1
TrPlaneStress2d 2218 nodes 3 1869 1868 3795 crossSect 6 mat 6 boundaryLoads 2 5 1
TrPlaneStress2d 2219 nodes 3 1868 1867 3796 crossSect 6 mat 6 boundaryLoads 2 5 1
TrPlaneStress2d 2220 nodes 3 1867 1866 3797 crossSect 6 mat 6 boundaryLoads 2 5 1
TrPlaneStress2d 2221 nodes 3 1866 1865 3798 crossSect 6 mat 6 boundaryLoads 2 5 1
TrPlaneStress2d 2222 nodes 3 1865 1864 3799 crossSect 6 mat 6 boundaryLoads 2 5 1
TrPlaneStress2d 2223 nodes 3 1864 1863 3800 crossSect 6 mat 6 boundaryLoads 2 5 1
TrPlaneStress2d 2224 nodes 3 1863 1862 3801 crossSect 6 mat 6 boundaryLoads 2 5 1
TrPlaneStress2d 2225 nodes 3 1862 1861 3802 crossSect 6 mat 6 boundaryLoads 2 5 1
TrPlaneStress2d 2226 nodes 3 1861 1860 3803 crossSect 6 mat 6 boundaryLoads 2 5 1
# ... 4 like lines cut
TrPlaneStress2d 2231 nodes 3 50 1113 3784 crossSect 6 mat 6
TrPlaneStress2d 2232 nodes 3 1113 1112 3784 crossSect 6 mat 6
TrPlaneStress2d 2233 nodes 3 1112 1111 3805 crossSect 6 mat 6
TrPlaneStress2d 2234 nodes 3 1111 1110 3804 crossSect 6 mat 6
TrPlaneStress2d 2235 nodes 3 1110 1109 3803 crossSect 6 mat 6
TrPlaneStress2d 2236 nodes 3 1109 1108 3802 crossSect 6 mat 6
TrPlaneStress2d 2237 nodes 3 1108 1107 3801 crossSect 6 mat 6
TrPlaneStress2d 2238 nodes 3 1107 1106 3800 crossSect 6 mat 6
TrPlaneStress2d 2239 nodes 3 1106 1105 3799 crossSect 6 mat 6
TrPlaneStress2d 2240 nodes 3 1105 1104 3798 crossSect 6 mat 6
TrPlaneStress2d 2241 nodes 3 1104 1103 3797 crossSect 6 mat 6
TrPlaneStress2d 2242 nodes 3 1103 1102 3796 crossSect 6 mat 6
TrPlaneStress2d 2243 nodes 3 1102 1101 3795 crossSect 6 mat 6
TrPlaneStress2d 2244 nodes 3 1101 1100 3794 crossSect 6 mat 6
TrPlaneStress2d 2245 nodes 3 1100 1099 3793 crossSect 6 mat 6
TrPlaneStress2d 2246 nodes 3 1099 1098 3792 crossSect 6 mat 6
TrPlaneStress2d 2247 nodes 3 1098 1097 3791 crossSect 6 mat 6
TrPlaneStress2d 2248 nodes 3 1097 1096 3790 crossSect 6 mat 6
TrPlaneStress2d 2249 nodes 3 1096 1095 3789 crossSect 6 mat 6
TrPlaneStress2d 2250 nodes 3 1095 1094 3788 crossSect 6 mat 6
# ... 56 like lines cut
TrPlaneStress2d 2307 nodes 3 64 2642 3808 crossSect 6 mat 6 boundaryLoads 2 5 1
TrPlaneStress2d 2308 nodes 3 2642 63 3809 crossSect 6 mat 6 boundaryLoads 2 5 1
TrPlaneStress2d 2309 nodes 3 63 2640 3809 crossSect 6 mat 6
TrPlaneStress2d 2310 nodes 3 2640 49 3809 crossSect 6 mat 6
TrPlaneStress2d 2311 nodes 3 49 1114 3807 crossSect 6 mat 6
TrPlaneStress2d 2312 nodes 3 1114 50 3807 crossSect 6 mat 6
TrPlaneStress2d 2313 nodes 3 3807 2641 3808 crossSect 6 mat 6
TrPlaneStress2d 2314 nodes 3 3808 2642 3809 crossSect 6 mat 6
TrPlaneStress2d 2315 nodes 3 3809 49 3807 crossSect 6 mat 6
TrPlaneStress2d 2316 nodes 3 3807 3808 3809 crossSect 6 mat 6
TrPlaneStress2d 2317 nodes 3 49 2640 3810 crossSect 6 mat 6
TrPlaneStress2d 2318 nodes 3 2640 63 3811 crossSect 6 mat 6
TrPlaneStress2d 2319 nodes 3 62 2639 3812 crossSect 6 mat 6
TrPlaneStress2d 2320 nodes 3 2639 48 3813 crossSect 6 mat 6
TrPlaneStress2d 2321 nodes 3 63 1669 3811 crossSect 6 mat 6 boundaryLoads 2 5 1
TrPlaneStress2d 2322 nodes 3 1669 1668 3814 crossSect 6 mat 6 boundaryLoads 2 5 1
TrPlaneStress2d 2323 nodes 3 1668 1667 3815 crossSect 6 mat 6 boundaryLoads 2 5 1
TrPlaneStress2d 2324 nodes 3 1667 1666 3816 crossSect 6 mat 6 boundaryLoads 2 5 1
TrPlaneStress2d 2325 nodes 3 1666 1665 3817 crossSect 6 mat 6 boundaryLoads 2 5 1
TrPlaneStress2d 2326 nodes 3 1665 1664 3818 crossSect 6 mat 6 boundaryLoads 2 5 1
TrPlaneStress2d 2327 nodes 3 1664 1663 3819 crossSect 6 mat 6 boundaryLoads 2 5 1
TrPlaneStress2d 2328 nodes 3 1663 1662 3820 crossSect 6 mat 6 boundaryLoads 2 5 1
TrPlaneStress2d 2329 nodes 3 1662 1661 3821 crossSect 6 mat 6 boundaryLoads 2 5 1
TrPlaneStress2d 2330 nodes 3 1661 1660 3822 crossSect 6 mat 6 boundaryLoads 2 5 1
TrPlaneStress2d 2331 nodes 3 1660 1659 3823 crossSect 6 mat 6 boundaryLoads 2 5 1
TrPlaneStress2d 2332 nodes 3 1659 1658 3824 crossSect 6 mat 6 boundaryLoads 2 5 1
TrPlaneStress2d 2333 nodes 3 1658 1657 3825 crossSect 6 mat 6 boundaryLoads 2 5 1
TrPlaneStress2d 2334 nodes 3 1657 1656 3826 crossSect 6 mat 6 boundaryLoads 2 5 1
TrPlaneStress2d 2335 nodes 3 1656 1655 3827 crossSect 6 mat 6 boundaryLoads 2 5 1
TrPlaneStress2d 2336 nodes 3 1655 1654 3828 crossSect 6 mat 6 boundaryLoads 2 5 1
TrPlaneStress2d 2337 nodes 3 1654 1653 3829 crossSect 6 mat 6 boundaryLoads 2 5 1
TrPlaneStress2d 2338 nodes 3 1653 1652 3830 crossSect 6 mat 6 boundaryLoads 2 5 1
TrPlaneStress2d 2339 nodes 3 1652 1651 3831 crossSect 6 mat 6 boundaryLoads 2 5 1
TrPlaneStress2d 2340 nodes 3 1651 1650 3832 crossSect 6 mat 6 boundaryLoads 2 5 1
# ... 4 like lines cut
TrPlaneStress2d 2345 nodes 3 48 1137 3813 crossSect 6 mat 6
TrPlaneStress2d 2346 nodes 3 1137 1136 3813 crossSect 6 mat 6
TrPlaneStress2d 2347 nodes 3 1136 1135 3834 crossSect 6 mat 6
TrPlaneStress2d 2348 nodes 3 1135 1134 3833 crossSect 6 mat 6
TrPlaneStress2d 2349 nodes 3 1134 1133 3832 crossSect 6 mat 6
TrPlaneStress2d 2350 nodes 3 1133 1132 3831 crossSect 6 mat 6
TrPlaneStress2d 2351 nodes 3 1132 1131 3830 crossSect 6 mat 6
TrPlaneStress2d 2352 nodes 3 1131 1130 3829 crossSect 6 mat 6
TrPlaneStress2d 2353 nodes 3 1130 1129 3828 crossSect 6 mat 6
TrPlaneStress2d 2354 nodes 3 1129 1128 3827 crossSect 6 mat 6
TrPlaneStress2d 2355 nodes 3 1128 1127 3826 crossSect 6 mat 6
TrPlaneStress2d 2356 nodes 3 1127 1126 3825 crossSect 6 mat 6
TrPlaneStress2d 2357 nodes 3 1126 1125 3824 crossSect 6 mat 6
TrPlaneStress2d 2358 nodes 3 1125 1124 3823 crossSect 6 mat 6
TrPlaneStress2d 2359 nodes 3 1124 1123 3822 crossSect 6 mat 6
TrPlaneStress2d 2360 nodes 3 1123 1122 3821 crossSect 6 mat 6
TrPlaneStress2d 2361 nodes 3 1122 1121 3820 crossSect 6 mat 6
TrPlaneStress2d 2362 nodes 3 1121 1120 3819 crossSect 6 mat 6
TrPlaneStress2d 2363 nodes 3 1120 1119 3818 crossSect 6 mat 6
TrPlaneStress2d 2364 nodes 3 1119 1118 3817 crossSect 6 mat 6
# ... 9284 like lines cut
TrPlaneStress2d 11649 nodes 3 48 2633 7387 crossSect 4 mat 4 activityltf 1
TrPlaneStress2d 11650 nodes 3 2633 47 7388 crossSect 4 mat 4 activityltf 1
TrPlaneStress2d 11651 nodes 3 33 2620 7389 crossSect 4 mat 4 activityltf 1
TrPlaneStress2d 11652 nodes 3 2620 34 7390 crossSect 4 mat 4 activityltf 1
TrPlaneStress2d 11653 nodes 3 47 882 7388 crossSect 4 mat 4 activityltf 1
TrPlaneStress2d 11654 nodes 3 882 881 7391 crossSect 4 mat 4 activityltf 1
TrPlaneStress2d 11655 nodes 3 881 880 7392 crossSect 4 mat 4 activityltf 1
TrPlaneStress2d 11656 nodes 3 880 879 7393 crossSect 4 mat 4 activityltf 1
TrPlaneStress2d 11657 nodes 3 879 878 7394 crossSect 4 mat 4 activityltf 1
TrPlaneStress2d 11658 nodes 3 878 877 7395 crossSect 4 mat 4 activityltf 1
TrPlaneStress2d 11659 nodes 3 877 876 7396 crossSect 4 mat 4 activityltf 1
TrPlaneStress2d 11660 nodes 3 876 875 7397 crossSect 4 mat 4 activityltf 1
TrPlaneStress2d 11661 nodes 3 875 874 7398 crossSect 4 mat 4 activityltf 1
TrPlaneStress2d 11662 nodes 3 874 873 7399 crossSect 4 mat 4 activityltf 1
TrPlaneStress2d 11663 nodes 3 873 872 7400 crossSect 4 mat 4 activityltf 1
TrPlaneStress2d 11664 nodes 3 872 871 7401 crossSect 4 mat 4 activityltf 1
TrPlaneStress2d 11665 nodes 3 871 870 7402 crossSect 4 mat 4 activityltf 1
TrPlaneStress2d 11666 nodes 3 870 869 7403 crossSect 4 mat 4 activityltf 1
TrPlaneStress2d 11667 nodes 3 869 868 7404 crossSect 4 mat 4 activityltf 1
TrPlaneStress2d 11668 nodes 3 868 867 7405 crossSect 4 mat 4 activityltf 1
# ... 2182 like lines cut
TrPlaneStress2d 13851 nodes 3 39 1230 8227 crossSect 1 mat 1
TrPlaneStress2d 13852 nodes 3 1230 40 8228 crossSect 1 mat 1
TrPlaneStress2d 13853 nodes 3 54 1346 8229 crossSect 1 mat 1
TrPlaneStress2d 13854 nodes 3 1346 53 8230 crossSect 1 mat 1
TrPlaneStress2d 13855 nodes 3 38 1207 8231 crossSect 1 mat 1
TrPlaneStress2d 13856 nodes 3 1207 1208 8232 crossSect 1 mat 1
TrPlaneStress2d 13857 nodes 3 1208 1209 8233 crossSect 1 mat 1
TrPlaneStress2d 13858 nodes 3 1209 1210 8234 crossSect 1 mat 1
TrPlaneStress2d 13859 nodes 3 1210 1211 8235 crossSect 1 mat 1
TrPlaneStress2d 13860 nodes 3 1211 1212 8236 crossSect 1 mat 1
TrPlaneStress2d 13861 nodes 3 1212 1213 8237 crossSect 1 mat 1
TrPlaneStress2d 13862 nodes 3 1213 1214 8238 crossSect 1 mat 1
TrPlaneStress2d 13863 nodes 3 1214 1215 8239 crossSect 1 mat 1
TrPlaneStress2d 13864 nodes 3 1215 1216 8240 crossSect 1 mat 1
TrPlaneStress2d 13865 nodes 3 1216 1217 8241 crossSect 1 mat 1
TrPlaneStress2d 13866 nodes 3 1217 1218 8242 crossSect 1 mat 1
TrPlaneStress2d 13867 nodes 3 1218 1219 8243 crossSect 1 mat 1
TrPlaneStress2d 13868 nodes 3 1219 1220 8244 crossSect 1 mat 1
TrPlaneStress2d 13869 nodes 3 1220 1221 8245 crossSect 1 mat 1
TrPlaneStress2d 13870 nodes 3 1221 1222 8246 crossSect 1 mat 1
# ... 3122 like lines cut
TrPlaneStress2d 16993 nodes 3 48 2639 9487 crossSect 4 mat 4 activityltf 1
TrPlaneStress2d 16994 nodes 3 2639 62 9488 crossSect 4 mat 4 activityltf 1
TrPlaneStress2d 16995 nodes 3 61 2638 9488 crossSect 4 mat 4 activityltf 1
TrPlaneStress2d 16996 nodes 3 2638 47 9487 crossSect 4 mat 4 activityltf 1
TrPlaneStress2d 16997 nodes 3 62 1646 9488 crossSect 4 mat 4 activityltf 1
TrPlaneStress2d 16998 nodes 3 1646 61 9488 crossSect 4 mat 4 activityltf 1
TrPlaneStress2d 16999 nodes 3 47 2633 9487 crossSect 4 mat 4 activityltf 1
TrPlaneStress2d 17000 nodes 3 2633 48 9487 crossSect 4 mat 4 activityltf 1
TrPlaneStress2d 17001 nodes 3 9487 2639 9488 crossSect 4 mat 4 activityltf 1
TrPlaneStress2d 17002 nodes 3 9488 2638 9487 crossSect 4 mat 4 activityltf 1
TrPlaneStress2d 17003 nodes 3 49 2640 9489 crossSect 4 mat 4 activityltf 1
TrPlaneStress2d 17004 nodes 3 2640 63 9490 crossSect 4 mat 4 activityltf 1
TrPlaneStress2d 17005 nodes 3 62 2639 9491 crossSect 4 mat 4 activityltf 1
TrPlaneStress2d 17006 nodes 3 2639 48 9492 crossSect 4 mat 4 activityltf 1
TrPlaneStress2d 17007 nodes 3 63 1669 9490 crossSect 4 mat 4 activityltf 1
TrPlaneStress2d 17008 nodes 3 1669 1668 9493 crossSect 4 mat 4 activityltf 1
TrPlaneStress2d 17009 nodes 3 1668 1667 9494 crossSect 4 mat 4 activityltf 1
TrPlaneStress2d 17010 nodes 3 1667 1666 9495 crossSect 4 mat 4 activityltf 1
TrPlaneStress2d 17011 nodes 3 1666 1665 9496 crossSect 4 mat 4 activityltf 1
TrPlaneStress2d 17012 nodes 3 1665 1664 9497 crossSect 4 mat 4 activityltf 1
# ... 216 like lines cut
TrPlaneStress2d 17229 nodes 3 53 2645 9546 crossSect 2 mat 2
TrPlaneStress2d 17230 nodes 3 2645 67 9547 crossSect 2 mat 2
TrPlaneStress2d 17231 nodes 3 66 2644 9548 crossSect 2 mat 2
TrPlaneStress2d 17232 nodes 3 2644 52 9549 crossSect 2 mat 2
TrPlaneStress2d 17233 nodes 3 67 1903 9547 crossSect 2 mat 2
TrPlaneStress2d 17234 nodes 3 1903 1902 9550 crossSect 2 mat 2
TrPlaneStress2d 17235 nodes 3 1902 1901 9551 crossSect 2 mat 2
TrPlaneStress2d 17236 nodes 3 1901 1900 9552 crossSect 2 mat 2
TrPlaneStress2d 17237 nodes 3 1900 1899 9553 crossSect 2 mat 2
TrPlaneStress2d 17238 nodes 3 1899 1898 9554 crossSect 2 mat 2
TrPlaneStress2d 17239 nodes 3 1898 1897 9555 crossSect 2 mat 2
TrPlaneStress2d 17240 nodes 3 1897 1896 9556 crossSect 2 mat 2
TrPlaneStress2d 17241 nodes 3 1896 1895 9557 crossSect 2 mat 2
TrPlaneStress2d 17242 nodes 3 1895 1894 9558 crossSect 2 mat 2
TrPlaneStress2d 17243 nodes 3 1894 1893 9559 crossSect 2 mat 2
TrPlaneStress2d 17244 nodes 3 1893 1892 9560 crossSect 2 mat 2
TrPlaneStress2d 17245 nodes 3 1892 1891 9561 crossSect 2 mat 2
TrPlaneStress2d 17246 nodes 3 1891 1890 9562 crossSect 2 mat 2
TrPlaneStress2d 17247 nodes 3 1890 1889 9563 crossSect 2 mat 2
TrPlaneStress2d 17248 nodes 3 1889 1888 9564 crossSect 2 mat 2
# ... 7716 like lines cut
#
SimpleCS 1 thick 0.45
SimpleCS 2 thick 0.45
SimpleCS 3 thick 0.45
SimpleCS 4 thick 0.45
SimpleCS 5 thick 0.45
SimpleCS 6 thick 0.45
#
IsoLE 1 talpha 0. d 0.0 E 60.e3 n 0.2 
IsoLE 2 talpha 0. d 0.0 E 10.e3 n 0.2
IsoLE 3 talpha 0. d 0.0 E 60.e3 n 0.2
IsoLE 4 talpha 0. d 0.0 E 10.e3 n 0.2
IsoLE 5 talpha 0. d 0.0 E 60.e3 n 0.2 castingTime    15
IsoLE 6 talpha 0. d 0.0 E 10.e3 n 0.2 castingTime    20
#
#
BoundaryCondition  1 loadTimeFunction 1 prescribedvalue 0.0 
NodalLoad 2 loadTimeFunction 3 Components 2 0 -0.05
BoundaryCondition  3 loadTimeFunction 1 prescribedvalue 0.0 isImposedTimeFunction 4
ConstantEdgeLoad 4 LoadType 3 components 2 0. -1. loadTimeFunction 5
ConstantEdgeLoad 5 LoadType 3 components 2 0. 1. loadTimeFunction 5
#
UsrDefLTF   1 f(t) "(1. - h(9.9999))"
ConstantFunction 2 f(t) 1.0
PiecewiseLinFunction 3 nPoints 4 t 4 -1.e6 0. 5.  1.e6 f(t) 4 0. 0. 1. 1.
UsrDefLTF   4 f(t) "(h(10.))" 
PiecewiseLinFunction 5 nPoints 6 t 6 -1.e6 15. 19. 20. 20.001 1.e6 f(t) 6 0. 0. 10. 10. 0. 0.
#
set 1 elementranges {(2891 7218)(7505 9704)(10521 11648)(13851 15482)(15769 16886)(17701 19896)(20183 22030)(22317 24512) }
set 2 elementranges {(2439 2890)(7219 7504)(9705 10520)(15483 15768)(16887 16992)(17229 17700)(19897 20182)(22031 22316)(24513 24964)}
set 3 elementranges {(11935 13564)}
set 4 elementranges {(11649 11934)(13565 13850)(16993 17228)}
set 5 elementranges {(1 1630)}
set 6 elementranges {(1631 2438)}
