plane_stress01.out
Test of PlaneStress2d elements -> pure compression in y direction
StaticStructural nsteps 1 nmodules 1
vtkxml tstep_all domain_all primvars 1 1 vars 2 1 4
domain 2dPlaneStress
OutputManager tstep_all dofman_all element_all
ndofman 66 nelem 50 ncrosssect 1 nmat 1 nbc 2 nic 0 nltf 1 nset 3
node 1 coords 3  0.0   0.0   0.0
node 2 coords 3  0.0   0.1   0.0
node 3 coords 3  0.0   0.2   0.0
node 4 coords 3  0.0   0.3   0.0
node 5 coords 3  0.0   0.4   0.0
node 6 coords 3  0.0   0.5   0.0
node 11 coords 3  0.15   0.0   0.0
node 12 coords 3  0.15   0.1   0.0
node 13 coords 3  0.15   0.2   0.0
node 14 coords 3  0.15   0.3   0.0
node 15 coords 3  0.15   0.4   0.0
node 16 coords 3  0.15   0.5   0.0
node 21 coords 3  0.3   0.0   0.0
node 22 coords 3  0.3   0.1   0.0
node 23 coords 3  0.3   0.2   0.0
node 24 coords 3  0.3   0.3   0.0
node 25 coords 3  0.3   0.4   0.0
node 26 coords 3  0.3   0.5   0.0
node 31 coords 3  0.45   0.0   0.0
node 32 coords 3  0.45   0.1   0.0
# ... 46 like lines cut
#
PlaneStress2d 1 nodes 4 1 11 12 2
PlaneStress2d 2 nodes 4 2 12 13 3
PlaneStress2d 3 nodes 4 3 13 14 4
PlaneStress2d 4 nodes 4 4 14 15 5
PlaneStress2d 5 nodes 4 5 15 16 6
PlaneStress2d 11 nodes 4 11 21 22 12
PlaneStress2d 12 nodes 4 12 22 23 13
PlaneStress2d 13 nodes 4 13 23 24 14
PlaneStress2d 14 nodes 4 14 24 25 15
PlaneStress2d 15 nodes 4 15 25 26 16
PlaneStress2d 21 nodes 4 21 31 32 22
PlaneStress2d 22 nodes 4 22 32 33 23
PlaneStress2d 23 nodes 4 23 33 34 24
PlaneStress2d 24 nodes 4 24 34 35 25
PlaneStress2d 25 nodes 4 25 35 36 26
PlaneStress2d 31 nodes 4 31 41 42 32
PlaneStress2d 32 nodes 4 32 42 43 33
PlaneStress2d 33 nodes 4 33 43 44 34
PlaneStress2d 34 nodes 4 34 44 45 35
PlaneStress2d 35 nodes 4 35 45 46 36
# ... 30 like lines cut
#
SimpleCS 1 thick 0.15 material 1 set 1
IsoLE 1 d 0. E 15.0 n 0.25  tAlpha 0.000012
#
BoundaryCondition  1 loadTimeFunction 1 dofs 2 1 2 values 2 0.0 0.0 set 2
BoundaryCondition  2 loadTimeFunction 1 dofs 1 2 values 1 -0.1 set 3
ConstantFunction 1 f(t) 1.0
Set 1 elementranges { (1 5) (11 15) (21 25) (31 35) (41 45) (51 55) (61 65) (71 75) (81 85) (91 95)}
Set 2 nodes 6 1 2 3 4 5 6
Set 3 nodes 6 101 102 103 104 105 106

