oofemResults_Cs10mm_3gL/Meso_oofem.out
Sulphate attack, cross-sections 10 mm 
StaticStructural nsteps 2 rtolf 1e-2 lstype 4 stiffMode 1 smtype 8 manrmsteps 100000 maxiter 300 initialguess 0 nmodules 5 #FCMV
vtkxml tstep_all domain_all primvars 1 1 vars 9 1 2 4 82 90 109 110 112 136 stype 2 regionsets 1 2 #FCMV
vtkxml tstep_all domain_all primvars 1 1 vars 3 1 2 4 stype 2 regionsets 1 1 #FCMV
hom tstep_all ists 4 4 1 90 112 strain_energy regionsets 2 1 2 #FCMV
hom tstep_all ists 4 4 1 90 112 strain_energy regionsets 1 1 #FCMV
hom tstep_all ists 4 4 1 90 112 strain_energy regionsets 1 2 #FCMV
domain 2dPlaneStress
#OutputManager tstep_all dofman_all element_all
OutputManager dofman_output {1 2 3}
ndofman 708 nelem 1346 ncrosssect 2 nmat 3 nbc 3 nic 0 nltf 3 nset 4 nxfemman 0
node 1     coords 3  0.00573338  0.007905  0       
node 2     coords 3  0.008249  0.00350726  0       
node 3     coords 3  0.00742172  0.00844924  0       
node 4     coords 3  0.0023261  0.00402552  0       
node 5     coords 3  0.00995665  0.00155364  0       
node 6     coords 3  0.0068815  0.00117492  0       
node 7     coords 3  0.00784686  0.00559741  0       
node 8     coords 3  0.00423152  0.00101011  0       
node 9     coords 3  0.00995854  0.00467356  0       
node 10    coords 3  0.00217613  0.00112051  0       
node 11    coords 3  0.00126525  0.00274474  0       
node 12    coords 3  0.0023851  0.0086483  0       
node 13    coords 3  0.00427761  0.00509208  0       
node 14    coords 3  0.00973748  0.00624502  0       
node 15    coords 3  0.0095495  0.0084635  0       
node 16    coords 3  0.00366718  0.00687966  0       
node 17    coords 3  0.00850897  0.00086424  0       
node 18    coords 3  0.00628747  0.00453651  0       
node 19    coords 3  0.01     0.01     0       
node 20    coords 3  0.01     0        0       
# ... 688 like lines cut
TrPlaneStress2D 291   nodes 3   23  1   291 NIP 3
TrPlaneStress2D 292   nodes 3   24  23  292 NIP 3
TrPlaneStress2D 293   nodes 3   23  291 292 NIP 3
TrPlaneStress2D 294   nodes 3   25  24  292 NIP 3
TrPlaneStress2D 295   nodes 3   26  25  293 NIP 3
TrPlaneStress2D 296   nodes 3   27  26  293 NIP 3
TrPlaneStress2D 297   nodes 3   25  292 293 NIP 3
TrPlaneStress2D 298   nodes 3   28  27  294 NIP 3
TrPlaneStress2D 299   nodes 3   27  293 294 NIP 3
TrPlaneStress2D 300   nodes 3   29  28  294 NIP 3
TrPlaneStress2D 301   nodes 3   30  29  295 NIP 3
TrPlaneStress2D 302   nodes 3   31  30  295 NIP 3
TrPlaneStress2D 303   nodes 3   29  294 295 NIP 3
TrPlaneStress2D 304   nodes 3   32  31  296 NIP 3
TrPlaneStress2D 305   nodes 3   33  32  296 NIP 3
TrPlaneStress2D 306   nodes 3   31  295 296 NIP 3
TrPlaneStress2D 307   nodes 3   1   33  291 NIP 3
TrPlaneStress2D 308   nodes 3   33  296 291 NIP 3
TrPlaneStress2D 309   nodes 3   293 292 297 NIP 3
TrPlaneStress2D 310   nodes 3   294 293 297 NIP 3
# ... 1326 like lines cut
SimpleCS 1 thick 1. material 1 set 1
SimpleCS 2 thick 1. material 2 set 2
IsoLE 1 d 1.0 E 70000. n 0.2 tAlpha 0.0
#Yu's mortar, estimated tensile strength 6 MPa
#idm1 2 d 1.0 E 24490. n 0.26 e0 163.33e-6 gf 50e-6 equivstraintype 1 talpha 1.
#Fixed crack model
#ConcreteFCM 2 d 1. E 24490. n 0.26 Gf 50.e-6 ft 10.0 softType 1 shearType 0 shearStrengthType 0 shearCoeffNumer 1. ncracks 2 talpha 1.
#E=1. is a dummy value, it is calculated from mix composition in the creep model. Exponential softening.
ConcreteFcmViscoelastic 2 d 0.0 talpha 0. E 1. n 0.27 Gf 50.e-6 ft 6. softtype 1 multiplecrackshear viscomat 3 shearstrengthtype 1 ncracks 2 sheartype 0 #FCMV
MPS 3 d 0.0 n 0.27 talpha 1. mode 0 fc 40. cc 741.1 w/c 0.55 a/c 1.277 stiffnessfactor 1.e+6 timefactor 1. lambda0 1. begoftimeofinterest 1.e-6 endoftimeofinterest 1.e4 relMatAge 90. CoupledAnalysisType 0 #FCMV
BoundaryCondition 1 loadTimeFunction 1 dofs 1 1 values 1 0. set 3
BoundaryCondition 2 loadTimeFunction 1 dofs 1 2 values 1 0. set 4
StructEigenstrainLoad 3 loadTimeFunction 3 Components 3 300.e-6 300.e-6 0.0 set 2
ConstantFunction 1 f(t) 1.0
PiecewiseLinFunction 2 nPoints 2 t 2 1.0 200.0 f(t) 2 0.0 199.0
ConstantFunction 3 f(t) 0.
set 1 elements 450 291 292 293 294 295 296 297 298 299 300 301 302 303 304 305 306 307 308 309 310 311 312 313 314 315 316 317 318 319 320 321 322 323 324 325 326 327 328 329 330 331 332 333 334 335 336 337 338 339 340 341 342 343 344 345 346 347 348 349 350 351 352 353 354 355 356 357 358 359 360 361 362 363 364 365 366 367 368 369 370 371 372 373 374 375 376 377 378 379 380 381 382 383 384 385 3
set 2 elements 896 741 742 743 744 745 746 747 748 749 750 751 752 753 754 755 756 757 758 759 760 761 762 763 764 765 766 767 768 769 770 771 772 773 774 775 776 777 778 779 780 781 782 783 784 785 786 787 788 789 790 791 792 793 794 795 796 797 798 799 800 801 802 803 804 805 806 807 808 809 810 811 812 813 814 815 816 817 818 819 820 821 822 823 824 825 826 827 828 829 830 831 832 833 834 835 8
set 3 nodes 1 141 
set 4 nodes 2 42 141 
#Data for extractor, if necessary
#%BEGIN_CHECK% tolerance 1.e-8
#TIME
#LOADLEVEL
#NODE tStep 1 number 486 dof 2 unknown d
#%END_CHECK%
